Fe-MOF-74_2016-09-08_12:07:03
#******************************************
#
# file created by Zeo++
# Zeo++ is an open source package to
# analyze microporous materials
#
#*******************************************

_cell_length_a                  26.4418
_cell_length_b                  45.7985
_cell_length_c                  6.95736
_cell_angle_alpha               90
_cell_angle_beta                90
_cell_angle_gamma               90

_symmetry_space_group_name_H-M  'P1'
_symmetry_Int_Tables_number     1
_symmetry_cell_setting          Orthorhombic

loop_
_symmetry_equiv_pos_as_xyz
'+x,+y,+z'

loop_
_atom_site_label
_atom_site_type_symbol
_atom_site_fract_x
_atom_site_fract_y
_atom_site_fract_z
1    Br   0.922316    0.484609    0.573007
2    Br   0.422316    0.984609    0.573007
3    Br   0.922311    0.151269    0.906334
4    Br   0.42231     0.651269    0.906334
5    Cl   0.904813    0.176153    0.494511
6    Cl   0.404813    0.676153    0.494511
7    O   0.869255    0.165141    0.139483
8    O   0.369255    0.665141    0.139483
9    O   0.869258    0.498478    0.806183
10   O   0.369258    0.998478    0.806183
11   O   0.81764     0.18539     0.806133
12   O   0.31764     0.68539     0.806133
13   Br   0.811947    0.21886     0.572997
14   Br   0.311948    0.71886     0.572997
15   Cl   0.81182     0.45952     0.494538
16   Cl   0.31182     0.95952     0.494538
17   O   0.813082    0.4828      0.139499
18   O   0.313082    0.9828      0.139499
19   Br   0.765742    0.463211    0.906345
20   Br   0.265742    0.963211    0.906345
21   Br   0.734264    0.370125    0.760334
22   Br   0.234263    0.870125    0.760334
23   Cl   0.716629    0.302335    0.838807
24   Cl   0.21663     0.802335    0.838807
25   O   0.686925    0.350533    0.527169
26   O   0.186924    0.850534    0.527169
27   Cl   0.688185    0.373816    0.172134
28   Cl   0.188185    0.873816    0.172134
29   Cl   0.404815    0.00948904  0.16121
30   Cl   0.904815    0.509489    0.16121
31   Cl   0.404815    0.342818    0.827858
32   Cl   0.904815    0.842818    0.827858
33   Br   0.42231     0.317933    0.23968
34   Br   0.92231     0.817933    0.23968
35   Br   0.577688    0.0153915   0.427036
36   Br   0.0776881   0.515392    0.427036
37   Br   0.577692    0.348726    0.0936479
38   Br   0.0776917   0.848726    0.0936479
39   Cl   0.595187    0.323848    0.505467
40   Cl   0.095187    0.823848    0.505467
41   O   0.630746    0.334861    0.860481
42   O   0.130746    0.834861    0.860481
43   O   0.630746    0.001539    0.193824
44   O   0.130746    0.501539    0.193824
45   O   0.682363    0.31461     0.193847
46   O   0.182363    0.81461     0.193847
47   Br   0.68805     0.28114     0.426973
48   Br   0.18805     0.781139    0.426973
49   Cl   0.688197    0.0404766   0.505463
50   Cl   0.188197    0.540477    0.505463
51   O   0.686889    0.0172113   0.860515
52   O   0.186889    0.517211    0.860515
53   Br   0.734288    0.0367776   0.0936105
54   Br   0.234288    0.536778    0.0936105
55   Br   0.765721    0.129883    0.239679
56   Br   0.265721    0.629883    0.239679
57   Br   0.0776888   0.182063    0.760321
58   Br   0.577689    0.682064    0.760321
59   Cl   0.0951867   0.157179    0.172147
60   Cl   0.595187    0.65718     0.172147
61   Cl   0.0951816   0.490507    0.838842
62   Cl   0.595182    0.990506    0.838842
63   Cl   0.78337     0.197664    0.161168
64   Cl   0.28337     0.697664    0.161168
65   O   0.81309     0.149461    0.472794
66   O   0.31309     0.649461    0.472794
67   Cl   0.811809    0.126188    0.827841
68   Cl   0.311809    0.626188    0.827841
69   O   0.130744    0.168193    0.527176
70   O   0.630744    0.668193    0.527176
71   O   0.182363    0.147945    0.86053
72   O   0.682363    0.647945    0.86053
73   O   0.182332    0.481272    0.527131
74   O   0.682333    0.981272    0.527131
75   Br   0.188051    0.114473    0.0936635
76   Br   0.688051    0.614473    0.0936635
77   Br   0.188064    0.447811    0.760317
78   Br   0.688064    0.947811    0.760317
79   Cl   0.188186    0.207147    0.83882
80   Cl   0.688186    0.707147    0.83882
81   O   0.18691     0.183873    0.193871
82   O   0.68691     0.683873    0.193871
83   Cl   0.216629    0.135669    0.505489
84   Cl   0.716629    0.635669    0.505489
85   Cl   0.216623    0.469003    0.172117
86   Cl   0.716623    0.969003    0.172117
87   Br   0.234274    0.203451    0.426991
88   Br   0.734274    0.703451    0.426991
89   Br   0.26573     0.296547    0.573012
90   Br   0.76573     0.796547    0.573012
91   Cl   0.283372    0.0309996   0.827853
92   Cl   0.783371    0.531       0.827853
93   Cl   0.283368    0.364332    0.494497
94   Cl   0.783368    0.864332    0.494497
95   O   0.313088    0.316129    0.806154
96   O   0.813088    0.816129    0.806154
97   Cl   0.31181     0.292855    0.161198
98   Cl   0.81181     0.792855    0.161198
99   Br   0.311948    0.0521942   0.239685
100  Br   0.811948    0.552194    0.239685
101  Br   0.311931    0.385524    0.906315
102  Br   0.811931    0.885524    0.906315
103  O   0.317644    0.0187265   0.472821
104  O   0.817644    0.518726    0.472821
105  O   0.317655    0.352061    0.13948
106  O   0.817655    0.852061    0.13948
107  O   0.369255    0.331807    0.472826
108  O   0.869255    0.831807    0.472826
109  B   0.99395     0.174425    0.524223
110  B   0.493951    0.674425    0.524223
111  F   0.957185    0.163574    0.213938
112  F   0.457184    0.663574    0.213938
113  F   0.957188    0.496903    0.880649
114  F   0.457188    0.996903    0.880649
115  N   0.950435    0.171446    0.411395
116  N   0.450435    0.671446    0.411395
117  C   0.914334    0.493013    0.744707
118  C   0.414334    0.993013    0.744707
119  C   0.914333    0.159676    0.0779919
120  C   0.414333    0.659676    0.0779919
121  C   0.803316    0.210663    0.744651
122  C   0.303316    0.710663    0.744651
123  N   0.781952    0.439063    0.411418
124  N   0.281952    0.939063    0.411418
125  C   0.782349    0.462999    0.0780135
126  C   0.282349    0.962999    0.0780135
127  F   0.776049    0.230142    0.880589
128  F   0.276048    0.730142    0.880589
129  F   0.766765    0.439622    0.213946
130  F   0.266765    0.939622    0.213946
131  B   0.764661    0.415814    0.524233
132  B   0.264661    0.915814    0.524233
133  B   0.758611    0.256904    0.809094
134  B   0.258611    0.756904    0.809094
135  B   0.73534     0.417523    0.142443
136  B   0.23534     0.917523    0.142443
137  F   0.733237    0.393715    0.45273
138  F   0.233237    0.893714    0.45273
139  N   0.732382    0.277173    0.921917
140  N   0.232382    0.777173    0.921917
141  C   0.717657    0.370338    0.588654
142  C   0.217657    0.870338    0.588654
143  N   0.718052    0.394274    0.255259
144  N   0.218052    0.894274    0.255259
145  B   0.00604892  0.158909    0.142434
146  B   0.506049    0.658909    0.142434
147  B   0.00604556  0.492235    0.809146
148  B   0.506045    0.992235    0.809146
149  F   0.0428149   0.16976     0.452718
150  F   0.542815    0.66976     0.452718
151  N   0.0495684   0.495214    0.921963
152  N   0.549569    0.995214    0.921963
153  N   0.049565    0.161888    0.255262
154  N   0.549565    0.661888    0.255262
155  C   0.414333    0.326342    0.411334
156  C   0.914333    0.826342    0.411334
157  N   0.450436    0.338112    0.744735
158  N   0.950437    0.838112    0.744735
159  N   0.450435    0.00477765  0.0781014
160  N   0.950435    0.504778    0.0781014
161  F   0.457185    0.33024     0.547277
162  F   0.957185    0.83024     0.547277
163  B   0.493954    0.00775623  0.190925
164  B   0.993954    0.507756    0.190925
165  B   0.493953    0.34109     0.857557
166  B   0.993953    0.84109     0.857557
167  B   0.506049    0.325577    0.475764
168  B   0.0060486   0.825577    0.475764
169  F   0.542816    0.336427    0.786044
170  F   0.0428159   0.836427    0.786044
171  F   0.542813    0.00309049  0.11943
172  F   0.0428128   0.50309     0.11943
173  N   0.549565    0.328556    0.588586
174  N   0.0495647   0.828556    0.588586
175  C   0.585671    0.0069908   0.255341
176  C   0.0856711   0.506991    0.255341
177  C   0.58567     0.340323    0.921991
178  C   0.0856699   0.840323    0.921991
179  C   0.696684    0.289338    0.255326
180  C   0.196684    0.789338    0.255326
181  N   0.718059    0.0609352   0.58856
182  N   0.218058    0.560935    0.58856
183  C   0.71766     0.0370046   0.921979
184  C   0.21766     0.537004    0.921979
185  F   0.723953    0.269858    0.119387
186  F   0.223952    0.769858    0.119387
187  F   0.733243    0.0603774   0.786053
188  F   0.233242    0.560377    0.786053
189  B   0.735344    0.084185    0.475744
190  B   0.235344    0.584185    0.475744
191  B   0.741391    0.243096    0.190884
192  B   0.241391    0.743096    0.190884
193  B   0.764662    0.0824795   0.857555
194  B   0.264662    0.58248     0.857555
195  C   0.0856682   0.173657    0.58867
196  C   0.585668    0.673657    0.58867
197  F   0.766763    0.106286    0.547258
198  F   0.266763    0.606286    0.547258
199  N   0.767619    0.222828    0.0780578
200  N   0.267619    0.722828    0.0780578
201  C   0.782342    0.129665    0.411309
202  C   0.282342    0.629665    0.411309
203  N   0.781948    0.10573     0.744733
204  N   0.281948    0.60573     0.744733
205  C   0.196685    0.122671    0.922
206  C   0.696685    0.622671    0.922
207  C   0.196678    0.456002    0.588637
208  C   0.696678    0.956002    0.588637
209  N   0.218051    0.227604    0.921932
210  N   0.718051    0.727604    0.921932
211  C   0.217656    0.203669    0.255343
212  C   0.717657    0.703669    0.255343
213  F   0.223951    0.103191    0.786068
214  F   0.723951    0.603191    0.786068
215  F   0.223947    0.436523    0.452709
216  F   0.723947    0.936523    0.452709
217  N   0.232381    0.110506    0.588596
218  N   0.732381    0.610506    0.588596
219  N   0.232377    0.443836    0.255239
220  N   0.732377    0.943836    0.255239
221  F   0.233239    0.227045    0.119406
222  F   0.733239    0.727046    0.119406
223  B   0.235338    0.250855    0.809111
224  B   0.735338    0.750855    0.809111
225  B   0.241388    0.0764297   0.857561
226  B   0.741387    0.57643     0.857561
227  B   0.241385    0.409763    0.5242
228  B   0.741385    0.909763    0.5242
229  B   0.258609    0.0902378   0.475774
230  B   0.75861     0.590238    0.475774
231  B   0.258603    0.423571    0.142416
232  B   0.758603    0.92357     0.142416
233  B   0.26466     0.249146    0.190907
234  B   0.76466     0.749146    0.190907
235  F   0.266758    0.272955    0.880611
236  F   0.766758    0.772955    0.880611
237  N   0.267619    0.0561608   0.744741
238  N   0.767619    0.556161    0.744741
239  N   0.267614    0.389493    0.411378
240  N   0.767614    0.889493    0.411378
241  F   0.276048    0.0634765   0.54727
242  F   0.776048    0.563477    0.54727
243  F   0.27604     0.396807    0.213921
244  F   0.77604     0.896807    0.213921
245  C   0.282343    0.29633     0.744676
246  C   0.782343    0.79633     0.744676
247  N   0.281944    0.272396    0.078084
248  N   0.781944    0.772397    0.078084
249  C   0.303319    0.0439961   0.411336
250  C   0.803319    0.543996    0.411336
251  C   0.303313    0.37733     0.0779712
252  C   0.803313    0.87733     0.0779712
253  H    0.989657    0.180668    0.674422
254  H    0.489656    0.680667    0.674422
255  H    0.776176    0.414841    0.674445
256  H    0.276176    0.914841    0.674445
257  H    0.765824    0.262175    0.658883
258  H    0.265824    0.762175    0.658883
259  H    0.723826    0.418496    0.992232
260  H    0.223826    0.918496    0.992232
261  H    0.0103436   0.152666    0.992235
262  H    0.510343    0.652666    0.992235
263  H    0.0103423   0.485988    0.658956
264  H    0.510342    0.985988    0.658956
265  H    0.489658    0.014003    0.341122
266  H    0.989658    0.514003    0.341122
267  H    0.48966     0.347333    0.00775875
268  H    0.98966     0.847333    0.00775875
269  H    0.510341    0.319334    0.325562
270  H    0.0103407   0.819334    0.325562
271  H    0.723834    0.0851552   0.325533
272  H    0.223834    0.585155    0.325533
273  H    0.734177    0.237825    0.341094
274  H    0.234177    0.737826    0.341094
275  H    0.776171    0.0815089   0.0077677
276  H    0.276171    0.581509    0.0077677
277  H    0.223825    0.251826    0.658898
278  H    0.723824    0.751826    0.658898
279  H    0.234174    0.0711579   0.00777215
280  H    0.734174    0.571158    0.00777215
281  H    0.234174    0.40449     0.674413
282  H    0.734174    0.90449     0.674413
283  H    0.265823    0.0955083   0.325562
284  H    0.765823    0.595508    0.325562
285  H    0.26582     0.428842    0.992206
286  H    0.76582     0.928842    0.992206
287  H    0.276174    0.248174    0.34112
288  H    0.776174    0.748174    0.34112
289  Fe  0.865911    0.485465    0.366588
290  Fe  0.365911    0.985465    0.366588
291  Fe  0.795235    0.490982    0.699917
292  Fe  0.295235    0.990982    0.699917
293  Fe  0.338851    0.0235632   0.0332318
294  Fe  0.838851    0.523563    0.0332318
295  Fe  0.63409     0.014537    0.63342
296  Fe  0.13409     0.514537    0.63342
297  Fe  0.704772    0.00902195  0.300102
298  Fe  0.204772    0.509022    0.300102
299  Fe  0.161145    0.476442    0.966756
300  Fe  0.661145    0.976442    0.966756
301  Fe  0.865907    0.152129    0.699902
302  Fe  0.365907    0.652129    0.699902
303  Fe  0.83885     0.190228    0.366543
304  Fe  0.33885     0.690228    0.366543
305  Fe  0.795227    0.157646    0.0332165
306  Fe  0.295227    0.657646    0.0332165
307  Fe  0.134092    0.181204    0.966758
308  Fe  0.634092    0.681204    0.966758
309  Fe  0.161151    0.143105    0.300117
310  Fe  0.661151    0.643105    0.300117
311  Fe  0.204771    0.175688    0.633446
312  Fe  0.704771    0.675688    0.633446
313  Fe  0.295229    0.324313    0.366549
314  Fe  0.795229    0.824313    0.366549
315  Fe  0.338853    0.356892    0.699898
316  Fe  0.838853    0.856892    0.699898
317  Fe  0.365908    0.318794    0.0332483
318  Fe  0.865908    0.818794    0.0332483
319  Fe  0.704771    0.342353    0.96675
320  Fe  0.204771    0.842353    0.96675
321  Fe  0.634095    0.347871    0.300088
322  Fe  0.134095    0.847871    0.300088
323  Fe  0.661151    0.309772    0.633432
324  Fe  0.161151    0.809772    0.633432
