Mn-MOF-74_2016-09-08_12:07:03
#******************************************
#
# file created by Zeo++
# Zeo++ is an open source package to
# analyze microporous materials
#
#*******************************************

_cell_length_a                  26.5219
_cell_length_b                  45.9374
_cell_length_c                  7.15074
_cell_angle_alpha               90
_cell_angle_beta                90
_cell_angle_gamma               90

_symmetry_space_group_name_H-M  'P1'
_symmetry_Int_Tables_number     1
_symmetry_cell_setting          Orthorhombic

loop_
_symmetry_equiv_pos_as_xyz
'+x,+y,+z'

loop_
_atom_site_label
_atom_site_type_symbol
_atom_site_fract_x
_atom_site_fract_y
_atom_site_fract_z
1    Br  0.923387    0.484339    0.584029
2    Br  0.423387    0.984339    0.584029
3    Br  0.923386    0.151002    0.917359
4    Br  0.423386    0.651002    0.917359
5    Cl  0.905224    0.17638     0.490242
6    Cl  0.405224    0.67638     0.490242
7    O  0.869192    0.164544    0.140726
8    O  0.369192    0.664544    0.140726
9    O  0.869192    0.497878    0.807407
10   O  0.369192    0.997878    0.807407
11   O  0.818589    0.185656    0.807406
12   O  0.318589    0.685656    0.807406
13   Br  0.81179     0.219521    0.584
14   Br  0.31179     0.719521    0.584
15   Cl  0.811962    0.459195    0.490251
16   Cl  0.311962    0.959195    0.490251
17   O  0.812222    0.483131    0.140736
18   O  0.312222    0.983131    0.140736
19   Br  0.764815    0.462803    0.917363
20   Br  0.264815    0.962803    0.917363
21   Br  0.735186    0.370531    0.749301
22   Br  0.235186    0.870531    0.749301
23   Cl  0.717186    0.302247    0.843076
24   Cl  0.217186    0.802247    0.843076
25   O  0.687778    0.350203    0.525926
26   O  0.187778    0.850203    0.525926
27   Cl  0.688038    0.374139    0.176412
28   Cl  0.188038    0.874139    0.176412
29   Cl  0.405227    0.00971775  0.156913
30   Cl  0.905227    0.509718    0.156913
31   Cl  0.405227    0.343045    0.823579
32   Cl  0.905227    0.843045    0.823579
33   Br  0.423387    0.317669    0.250692
34   Br  0.923387    0.817669    0.250692
35   Br  0.576614    0.0156641   0.415972
36   Br  0.0766144   0.515664    0.415972
37   Br  0.576613    0.348995    0.0826363
38   Br  0.0766132   0.848995    0.0826363
39   Cl  0.594775    0.323616    0.509748
40   Cl  0.0947748   0.823616    0.509748
41   O  0.630808    0.335456    0.859257
42   O  0.130808    0.835456    0.859257
43   O  0.63081     0.00212579  0.19259
44   O  0.13081     0.502126    0.19259
45   O  0.681406    0.314342    0.192578
46   O  0.181406    0.814342    0.192578
47   Br  0.688209    0.280478    0.415995
48   Br  0.188209    0.780478    0.415995
49   Cl  0.688032    0.0408079   0.509744
50   Cl  0.188032    0.540808    0.509744
51   O  0.687781    0.0168704   0.859256
52   O  0.187781    0.51687     0.859256
53   Br  0.735176    0.0372029   0.082658
54   Br  0.235176    0.537203    0.082658
55   Br  0.764822    0.129466    0.25067
56   Br  0.264822    0.629466    0.25067
57   Br  0.076612    0.182331    0.749306
58   Br  0.576612    0.682331    0.749306
59   Cl  0.0947744   0.156953    0.17642
60   Cl  0.594774    0.656953    0.17642
61   Cl  0.0947744   0.490287    0.84308
62   Cl  0.594774    0.990287    0.84308
63   Cl  0.782812    0.197752    0.15691
64   Cl  0.282812    0.697752    0.15691
65   O  0.81222     0.149796    0.474061
66   O  0.31222     0.649796    0.474061
67   Cl  0.811964    0.12586     0.823577
68   Cl  0.311964    0.625861    0.823577
69   O  0.130807    0.168789    0.525936
70   O  0.630807    0.66879     0.525936
71   O  0.181409    0.147677    0.859258
72   O  0.681409    0.647677    0.859258
73   O  0.181411    0.481011    0.525918
74   O  0.681411    0.981011    0.525918
75   Br  0.188208    0.113812    0.0826646
76   Br  0.688208    0.613812    0.0826646
77   Br  0.188202    0.447143    0.749308
78   Br  0.688201    0.947143    0.749308
79   Cl  0.188034    0.207472    0.843082
80   Cl  0.688034    0.707472    0.843082
81   O  0.187778    0.183537    0.192599
82   O  0.687778    0.683537    0.192599
83   Cl  0.217185    0.135582    0.509751
84   Cl  0.717186    0.635582    0.509751
85   Cl  0.217187    0.468914    0.176417
86   Cl  0.717187    0.968914    0.176417
87   Br  0.235176    0.203867    0.415995
88   Br  0.735176    0.703867    0.415995
89   Br  0.264825    0.29613     0.584007
90   Br  0.764825    0.79613     0.584007
91   Cl  0.282814    0.0310882   0.823583
92   Cl  0.782814    0.531088    0.823583
93   Cl  0.282814    0.364419    0.490245
94   Cl  0.782814    0.864419    0.490245
95   O  0.312221    0.316462    0.807408
96   O  0.812221    0.816462    0.807408
97   Cl  0.311968    0.292524    0.156917
98   Cl  0.811968    0.792524    0.156917
99   Br  0.311791    0.0528568   0.25067
100  Br  0.811791    0.552857    0.25067
101  Br  0.311799    0.38619     0.917357
102  Br  0.811799    0.88619     0.917357
103  O  0.318595    0.0189922   0.474082
104  O  0.818595    0.518992    0.474082
105  O  0.31859     0.352321    0.140744
106  O  0.81859     0.852321    0.140744
107  O  0.369192    0.331207    0.474069
108  O  0.869191    0.831207    0.474069
109  B  0.994074    0.174468    0.518503
110  B  0.494074    0.674468    0.518503
111  F  0.957141    0.163575    0.217162
112  F  0.457141    0.663575    0.217162
113  F  0.957141    0.49691     0.883827
114  F  0.457141    0.99691     0.883827
115  N  0.950555    0.171582    0.409047
116  N  0.450555    0.671582    0.409047
117  C  0.914547    0.492704    0.750539
118  C  0.414547    0.992704    0.750539
119  C  0.914545    0.159368    0.0838569
120  C  0.414545    0.659368    0.0838569
121  C  0.803671    0.21092     0.750537
122  C  0.303671    0.71092     0.750537
123  N  0.782102    0.438932    0.409076
124  N  0.282102    0.938932    0.409076
125  C  0.781781    0.46304     0.0838702
126  C  0.281781    0.96304     0.0838702
127  F  0.77607     0.230117    0.883827
128  F  0.27607     0.730117    0.883827
129  F  0.766794    0.439643    0.217141
130  F  0.266794    0.939643    0.217141
131  B  0.764669    0.41573     0.518509
132  B  0.264669    0.91573     0.518509
133  B  0.758749    0.256865    0.814817
134  B  0.258749    0.756865    0.814817
135  B  0.735332    0.417605    0.148155
136  B  0.235333    0.917605    0.148155
137  F  0.733205    0.39369     0.44952
138  F  0.233205    0.89369     0.44952
139  N  0.732653    0.277182    0.924274
140  N  0.232653    0.777182    0.924274
141  C  0.71822     0.370294    0.58279
142  C  0.21822     0.870294    0.58279
143  N  0.717899    0.394403    0.257586
144  N  0.217899    0.894403    0.257586
145  B  0.00592211  0.158865    0.148161
146  B  0.505922    0.658865    0.148161
147  B  0.00592265  0.492199    0.814821
148  B  0.505923    0.992199    0.814821
149  F  0.0428595   0.169758    0.4495
150  F  0.542859    0.669758    0.4495
151  N  0.0494451   0.495086    0.924278
152  N  0.549445    0.995086    0.924278
153  N  0.0494428   0.161751    0.257615
154  N  0.549443    0.661751    0.257615
155  C  0.414547    0.326033    0.417197
156  C  0.914546    0.826033    0.417197
157  N  0.450554    0.338248    0.742387
158  N  0.950554    0.838248    0.742387
159  N  0.450556    0.00491778  0.0757196
160  N  0.950556    0.504918    0.0757196
161  F  0.45714     0.33024     0.550492
162  F  0.95714     0.83024     0.550492
163  B  0.494079    0.00780347  0.185184
164  B  0.994079    0.507803    0.185184
165  B  0.494078    0.341134    0.851836
166  B  0.994078    0.841134    0.851836
167  B  0.505924    0.32553     0.481489
168  B  0.00592393  0.82553     0.481489
169  F  0.54286     0.336423    0.78283
170  F  0.0428599   0.836423    0.78283
171  F  0.54286     0.00309264  0.11617
172  F  0.0428603   0.503093    0.11617
173  N  0.549443    0.328416    0.590945
174  N  0.0494431   0.828416    0.590945
175  C  0.585454    0.00729951  0.249461
176  C  0.0854545   0.507299    0.249461
177  C  0.585455    0.34063     0.916122
178  C  0.0854547   0.84063     0.916122
179  C  0.696328    0.289079    0.249448
180  C  0.196328    0.789079    0.249448
181  N  0.717895    0.0610699   0.590931
182  N  0.217895    0.56107     0.590931
183  C  0.718216    0.0369619   0.91612
184  C  0.218216    0.536962    0.91612
185  F  0.723929    0.269883    0.116164
186  F  0.223929    0.769883    0.116164
187  F  0.733208    0.0603562   0.782845
188  F  0.233208    0.560356    0.782845
189  B  0.735324    0.0842751   0.481477
190  B  0.235324    0.584275    0.481477
191  B  0.741251    0.243133    0.185181
192  B  0.241251    0.743133    0.185181
193  B  0.764674    0.0823925   0.851849
194  B  0.264674    0.582392    0.851849
195  C  0.0854524   0.173965    0.582803
196  C  0.585452    0.673965    0.582803
197  F  0.76679     0.106312    0.550478
198  F  0.26679     0.606312    0.550478
199  N  0.767347    0.222817    0.0757136
200  N  0.267347    0.722817    0.0757136
201  C  0.781782    0.129706    0.417192
202  C  0.281782    0.629706    0.417192
203  N  0.782104    0.105599    0.742391
204  N  0.282104    0.605599    0.742391
205  C  0.196327    0.122414    0.916124
206  C  0.696327    0.622414    0.916124
207  C  0.196329    0.455746    0.582781
208  C  0.696329    0.955746    0.582781
209  N  0.217896    0.227734    0.924274
210  N  0.717896    0.727734    0.924274
211  C  0.218216    0.203627    0.249466
212  C  0.718216    0.703627    0.249466
213  F  0.223929    0.103217    0.78283
214  F  0.723929    0.603217    0.78283
215  F  0.223934    0.436551    0.449503
216  F  0.723934    0.936551    0.449503
217  N  0.232653    0.110516    0.590951
218  N  0.732653    0.610516    0.590951
219  N  0.232654    0.443848    0.257599
220  N  0.732654    0.943848    0.257599
221  F  0.233209    0.227021    0.116185
222  F  0.733209    0.727021    0.116185
223  B  0.235325    0.25094     0.814807
224  B  0.735325    0.75094     0.814807
225  B  0.241251    0.0764687   0.851839
226  B  0.741251    0.576469    0.851839
227  B  0.241261    0.409801    0.518496
228  B  0.741261    0.909801    0.518496
229  B  0.258747    0.090201    0.481492
230  B  0.758747    0.590201    0.481492
231  B  0.258741    0.42353     0.148167
232  B  0.758741    0.92353     0.148167
233  B  0.264676    0.249057    0.185197
234  B  0.764676    0.749057    0.185197
235  F  0.266792    0.272976    0.883813
236  F  0.766792    0.772976    0.883813
237  N  0.267348    0.0561513   0.742391
238  N  0.767348    0.556151    0.742391
239  N  0.267347    0.389485    0.409064
240  N  0.767347    0.889485    0.409064
241  F  0.276071    0.0634512   0.550499
242  F  0.776071    0.563451    0.550499
243  F  0.276066    0.396782    0.217158
244  F  0.776066    0.896782    0.217158
245  C  0.281784    0.29637     0.750541
246  C  0.781784    0.79637     0.750541
247  N  0.282106    0.272263    0.0757327
248  N  0.782107    0.772264    0.0757327
249  C  0.303673    0.0442556   0.417211
250  C  0.803673    0.544256    0.417211
251  C  0.303673    0.377586    0.0838785
252  C  0.803673    0.877586    0.0838785
253  H   0.989774    0.180731    0.664652
254  H   0.489774    0.680731    0.664652
255  H   0.776215    0.414749    0.664647
256  H   0.276215    0.914749    0.664647
257  H   0.765991    0.262147    0.668698
258  H   0.265991    0.762147    0.668698
259  H   0.723786    0.418585    0.0020158
260  H   0.223786    0.918585    0.0020158
261  H   0.0102241   0.152602    0.0020103
262  H   0.510224    0.652602    0.0020103
263  H   0.0102243   0.485936    0.668685
264  H   0.510224    0.985936    0.668685
265  H   0.489777    0.0140652   0.331313
266  H   0.989777    0.514065    0.331313
267  H   0.489777    0.347397    0.99798
268  H   0.989776    0.847397    0.99798
269  H   0.510224    0.319268    0.335342
270  H   0.0102238   0.819268    0.335342
271  H   0.723778    0.0852546   0.335357
272  H   0.223778    0.585255    0.335357
273  H   0.73401     0.237852    0.33129
274  H   0.23401     0.737852    0.33129
275  H   0.77622     0.0814132   0.99796
276  H   0.27622     0.581413    0.99796
277  H   0.22378     0.25192     0.668705
278  H   0.72378     0.75192     0.668705
279  H   0.234009    0.0711863   0.997967
280  H   0.734009    0.571186    0.997967
281  H   0.234016    0.40452     0.664645
282  H   0.734016    0.90452     0.664645
283  H   0.26599     0.0954818   0.335365
284  H   0.76599     0.595482    0.335365
285  H   0.265985    0.428812    0.0020173
286  H   0.765985    0.928812    0.0020173
287  H   0.276221    0.248078    0.331298
288  H   0.776221    0.748078    0.331298
289  Mn  0.868653    0.485739    0.368311
290  Mn  0.368653    0.985739    0.368311
291  Mn  0.794284    0.489474    0.701656
292  Mn  0.294284    0.989474    0.701656
293  Mn  0.337064    0.0247892   0.0349673
294  Mn  0.837064    0.524789    0.0349673
295  Mn  0.63135     0.0142657   0.631677
296  Mn  0.13135     0.514266    0.631677
297  Mn  0.705714    0.0105321   0.29837
298  Mn  0.205714    0.510532    0.29837
299  Mn  0.162934    0.475213    0.96501
300  Mn  0.662934    0.975213    0.96501
301  Mn  0.868649    0.152402    0.701646
302  Mn  0.368649    0.652402    0.701646
303  Mn  0.837063    0.191454    0.368291
304  Mn  0.337063    0.691454    0.368291
305  Mn  0.794285    0.156137    0.0349611
306  Mn  0.294285    0.656137    0.0349611
307  Mn  0.131349    0.180932    0.965016
308  Mn  0.631349    0.680932    0.965016
309  Mn  0.162935    0.14188     0.29837
310  Mn  0.662935    0.64188     0.29837
311  Mn  0.205713    0.177196    0.631702
312  Mn  0.705713    0.677196    0.631702
313  Mn  0.294288    0.3228      0.368291
314  Mn  0.794288    0.8228      0.368291
315  Mn  0.337067    0.358119    0.701651
316  Mn  0.837067    0.858119    0.701651
317  Mn  0.368651    0.319067    0.034986
318  Mn  0.868651    0.819067    0.034986
319  Mn  0.705717    0.343861    0.965006
320  Mn  0.205717    0.843861    0.965006
321  Mn  0.631348    0.347596    0.29835
322  Mn  0.131348    0.847596    0.29835
323  Mn  0.662936    0.308545    0.631696
324  Mn  0.162936    0.808545    0.631696
