Ni-MOF-74_2016-09-08_12:07:03
#******************************************
#
# file created by Zeo++
# Zeo++ is an open source package to
# analyze microporous materials
#
#*******************************************

_cell_length_a                  26.0172
_cell_length_b                  45.0631
_cell_length_c                  6.82887
_cell_angle_alpha               90
_cell_angle_beta                90
_cell_angle_gamma               90

_symmetry_space_group_name_H-M  'P1'
_symmetry_Int_Tables_number     1
_symmetry_cell_setting          Orthorhombic

loop_
_symmetry_equiv_pos_as_xyz
'+x,+y,+z'

loop_
_atom_site_label
_atom_site_type_symbol
_atom_site_fract_x
_atom_site_fract_y
_atom_site_fract_z
1    Br   0.920187    0.484299    0.567273
2    Br   0.420187    0.984299    0.567273
3    Br   0.920188    0.150962    0.9006
4    Br   0.420188    0.650962    0.9006
5    Cl   0.903809    0.177427    0.500764
6    Cl   0.40381     0.677427    0.500764
7    O   0.866904    0.16514     0.139294
8    O   0.366904    0.66514     0.139294
9    O   0.866907    0.498475    0.805979
10   O   0.366907    0.998475    0.805979
11   O   0.818837    0.184215    0.805986
12   O   0.318837    0.684215    0.805986
13   Br   0.813463    0.217945    0.567255
14   Br   0.313463    0.717945    0.567255
15   Cl   0.814239    0.459382    0.500755
16   Cl   0.314239    0.959382    0.500755
17   O   0.81425     0.48398     0.139307
18   O   0.31425     0.98398     0.139307
19   Br   0.76635     0.464423    0.90058
20   Br   0.26635     0.964423    0.90058
21   Br   0.733651    0.368911    0.766084
22   Br   0.233651    0.868911    0.766084
23   Cl   0.718049    0.303477    0.832542
24   Cl   0.218049    0.803477    0.832542
25   O   0.685751    0.349355    0.527355
26   O   0.185751    0.849355    0.527355
27   Cl   0.685762    0.373952    0.165906
28   Cl   0.185762    0.873952    0.165906
29   Cl   0.403811    0.0107627   0.167437
30   Cl   0.903811    0.510763    0.167437
31   Cl   0.40381     0.344094    0.834095
32   Cl   0.90381     0.844094    0.834095
33   Br   0.42019     0.317629    0.233929
34   Br   0.92019     0.81763     0.233929
35   Br   0.579812    0.0157026   0.432728
36   Br   0.0798119   0.515703    0.432728
37   Br   0.579813    0.349036    0.0993928
38   Br   0.0798127   0.849036    0.0993928
39   Cl   0.596189    0.322572    0.499228
40   Cl   0.0961892   0.822572    0.499228
41   O   0.633094    0.334859    0.860684
42   O   0.133094    0.834859    0.860684
43   O   0.633096    0.00153196  0.194015
44   O   0.133096    0.501532    0.194015
45   O   0.681154    0.315782    0.193989
46   O   0.181154    0.815782    0.193989
47   Br   0.686539    0.282055    0.432739
48   Br   0.186539    0.782055    0.432739
49   Cl   0.685757    0.0406226   0.499217
50   Cl   0.185757    0.540623    0.499217
51   O   0.685749    0.016022    0.86067
52   O   0.185749    0.516022    0.86067
53   Br   0.733647    0.0355772   0.0994199
54   Br   0.233647    0.535577    0.0994199
55   Br   0.76635     0.13109     0.233902
56   Br   0.26635     0.63109     0.233902
57   Br   0.0798102   0.182371    0.766063
58   Br   0.57981     0.682371    0.766063
59   Cl   0.0961888   0.155906    0.165898
60   Cl   0.596189    0.655906    0.165898
61   Cl   0.0961914   0.489238    0.832565
62   Cl   0.596191    0.989238    0.832565
63   Cl   0.78195     0.196524    0.167453
64   Cl   0.28195     0.696524    0.167453
65   O   0.81425     0.150646    0.47264
66   O   0.31425     0.650646    0.47264
67   Cl   0.814242    0.126045    0.834106
68   Cl   0.314242    0.626045    0.834106
69   O   0.133095    0.168193    0.527368
70   O   0.633095    0.668193    0.527368
71   O   0.181161    0.149118    0.860677
72   O   0.681161    0.649118    0.860677
73   O   0.181162    0.48245     0.527342
74   O   0.681162    0.98245     0.527342
75   Br   0.186535    0.115387    0.0994101
76   Br   0.686535    0.615387    0.0994101
77   Br   0.186537    0.44872     0.766069
78   Br   0.686537    0.94872     0.766069
79   Cl   0.185756    0.207288    0.832554
80   Cl   0.685756    0.707288    0.832554
81   O   0.185749    0.182688    0.194022
82   O   0.685749    0.682688    0.194022
83   Cl   0.218048    0.136809    0.499212
84   Cl   0.718048    0.636809    0.499212
85   Cl   0.218043    0.470142    0.165895
86   Cl   0.718043    0.970142    0.165895
87   Br   0.233647    0.202243    0.432755
88   Br   0.733647    0.702243    0.432755
89   Br   0.266355    0.297756    0.567246
90   Br   0.766355    0.797756    0.567246
91   Cl   0.281951    0.0298577   0.834118
92   Cl   0.781951    0.529858    0.834118
93   Cl   0.281958    0.36319     0.500766
94   Cl   0.781958    0.86319     0.500766
95   O   0.314252    0.31731     0.805993
96   O   0.814252    0.81731     0.805993
97   Cl   0.314244    0.29271     0.167448
98   Cl   0.814244    0.79271     0.167448
99   Br   0.313462    0.05128     0.233917
100  Br   0.813462    0.55128     0.233917
101  Br   0.313464    0.384613    0.900594
102  Br   0.813464    0.884613    0.900594
103  O   0.318847    0.0175522   0.472673
104  O   0.818847    0.517552    0.472673
105  O   0.31884     0.350882    0.13932
106  O   0.81884     0.850882    0.13932
107  O   0.366904    0.331801    0.472647
108  O   0.866904    0.831801    0.472647
109  B   0.994282    0.174817    0.527366
110  B   0.494282    0.674817    0.527366
111  F   0.956279    0.163618    0.213274
112  F   0.456279    0.663618    0.213274
113  F   0.956281    0.496952    0.879943
114  F   0.456281    0.996952    0.879943
115  N   0.949669    0.171954    0.414277
116  N   0.449669    0.671954    0.414277
117  C   0.912668    0.492854    0.741901
118  C   0.412668    0.992854    0.741901
119  C   0.912666    0.159519    0.0752302
120  C   0.412666    0.659519    0.0752302
121  C   0.804392    0.209909    0.741911
122  C   0.304392    0.709909    0.741911
123  N   0.783099    0.439188    0.414272
124  N   0.283099    0.939188    0.414272
125  C   0.782945    0.463908    0.0752388
126  C   0.282945    0.963908    0.0752388
127  F   0.776447    0.229668    0.879947
128  F   0.276447    0.729668    0.879947
129  F   0.767285    0.440049    0.213265
130  F   0.267285    0.940049    0.213265
131  B   0.765087    0.415451    0.52736
132  B   0.265087    0.915451    0.52736
133  B   0.759387    0.256937    0.80599
134  B   0.259387    0.756937    0.80599
135  B   0.734914    0.417884    0.139302
136  B   0.234914    0.917884    0.139302
137  F   0.732716    0.393286    0.453397
138  F   0.232716    0.893286    0.453397
139  N   0.732769    0.27781     0.919056
140  N   0.232769    0.77781     0.919056
141  C   0.717055    0.369426    0.591423
142  C   0.217056    0.869426    0.591423
143  N   0.716902    0.394146    0.252391
144  N   0.216902    0.894146    0.252391
145  B   0.00571589  0.158516    0.139296
146  B   0.505716    0.658516    0.139296
147  B   0.00571767  0.491849    0.805963
148  B   0.505718    0.991849    0.805963
149  F   0.0437184   0.169715    0.453388
150  F   0.543718    0.669715    0.453388
151  N   0.05033     0.494712    0.919054
152  N   0.55033     0.994712    0.919054
153  N   0.0503288   0.161379    0.252385
154  N   0.550329    0.661379    0.252385
155  C   0.412667    0.326184    0.408569
156  C   0.912667    0.826184    0.408569
157  N   0.44967     0.338621    0.747606
158  N   0.949671    0.838621    0.747606
159  N   0.449672    0.00528791  0.0809468
160  N   0.949672    0.505288    0.0809468
161  F   0.456281    0.330285    0.546606
162  F   0.956281    0.830285    0.546606
163  B   0.494285    0.0081505   0.194038
164  B   0.994285    0.508151    0.194038
165  B   0.494283    0.341484    0.860697
166  B   0.994283    0.841484    0.860697
167  B   0.505717    0.325183    0.472627
168  B   0.00571665  0.825183    0.472627
169  F   0.543719    0.336382    0.786718
170  F   0.0437187   0.836382    0.786718
171  F   0.543721    0.00304839  0.120058
172  F   0.0437207   0.503048    0.120058
173  N   0.55033     0.328046    0.585715
174  N   0.0503298   0.828046    0.585715
175  C   0.587334    0.00714893  0.258096
176  C   0.0873345   0.507149    0.258096
177  C   0.587333    0.34048     0.924759
178  C   0.0873328   0.84048     0.924759
179  C   0.695606    0.290091    0.258078
180  C   0.195606    0.790091    0.258078
181  N   0.716896    0.0608136   0.585723
182  N   0.216896    0.560814    0.585723
183  C   0.717058    0.0360919   0.924754
184  C   0.217058    0.536092    0.924754
185  F   0.723554    0.270332    0.120048
186  F   0.223554    0.770332    0.120048
187  F   0.732726    0.0599471   0.786713
188  F   0.232726    0.559947    0.786713
189  B   0.734898    0.084558    0.472655
190  B   0.234898    0.584558    0.472655
191  B   0.740614    0.243064    0.194005
192  B   0.240614    0.743064    0.194005
193  B   0.765101    0.0821091   0.860667
194  B   0.265101    0.582109    0.860667
195  C   0.0873328   0.173815    0.591432
196  C   0.587333    0.673815    0.591432
197  F   0.767273    0.10672     0.546609
198  F   0.267273    0.60672     0.546609
199  N   0.767232    0.22219     0.080939
200  N   0.267232    0.72219     0.080939
201  C   0.78294     0.130576    0.408567
202  C   0.28294     0.630576    0.408567
203  N   0.783103    0.105854    0.7476
204  N   0.283103    0.605854    0.7476
205  C   0.195606    0.123424    0.92475
206  C   0.695606    0.623424    0.92475
207  C   0.195613    0.456759    0.591412
208  C   0.695613    0.956759    0.591412
209  N   0.216896    0.22748     0.919061
210  N   0.716896    0.72748     0.919061
211  C   0.217058    0.202757    0.258097
212  C   0.717058    0.702757    0.258097
213  F   0.223552    0.103665    0.786714
214  F   0.723552    0.603665    0.786714
215  F   0.223568    0.437002    0.453393
216  F   0.723568    0.937002    0.453393
217  N   0.232767    0.111144    0.585723
218  N   0.732767    0.611144    0.585723
219  N   0.232765    0.444475    0.252386
220  N   0.732765    0.944475    0.252386
221  F   0.232726    0.226612    0.120055
222  F   0.732726    0.726612    0.120055
223  B   0.234898    0.251224    0.805993
224  B   0.734898    0.751224    0.805993
225  B   0.240612    0.0763965   0.86067
226  B   0.740613    0.576397    0.86067
227  B   0.240634    0.409733    0.52736
228  B   0.740635    0.909733    0.52736
229  B   0.259385    0.0902702   0.47266
230  B   0.759385    0.59027     0.47266
231  B   0.259367    0.423599    0.139302
232  B   0.759367    0.923599    0.139302
233  B   0.265102    0.248775    0.19401
234  B   0.765102    0.748775    0.19401
235  F   0.267274    0.273386    0.879948
236  F   0.767274    0.773386    0.879948
237  N   0.267231    0.0555234   0.747605
238  N   0.767231    0.555523    0.747605
239  N   0.267236    0.388858    0.414276
240  N   0.767236    0.888858    0.414276
241  F   0.276446    0.0630021   0.546616
242  F   0.776446    0.563002    0.546616
243  F   0.276433    0.396331    0.213268
244  F   0.776433    0.896331    0.213268
245  C   0.282943    0.297241    0.741907
246  C   0.782943    0.797241    0.741907
247  N   0.283104    0.272519    0.0809395
248  N   0.783104    0.772519    0.0809395
249  C   0.304394    0.0432439   0.408587
250  C   0.804394    0.543244    0.408587
251  C   0.304388    0.376574    0.0752498
252  C   0.804388    0.876574    0.0752498
253  H    0.990298    0.181357    0.680121
254  H    0.490298    0.681357    0.680121
255  H    0.776895    0.414176    0.680116
256  H    0.276895    0.914176    0.680116
257  H    0.767205    0.262202    0.653231
258  H    0.267205    0.762202    0.653231
259  H    0.723106    0.419158    0.986546
260  H    0.223106    0.919158    0.986546
261  H    0.00969973  0.151976    0.986541
262  H    0.5097      0.651976    0.986541
263  H    0.00970068  0.485309    0.653212
264  H    0.509701    0.985309    0.653212
265  H    0.490301    0.0146907   0.34679
266  H    0.990301    0.514691    0.34679
267  H    0.4903      0.348025    0.0134514
268  H    0.9903      0.848025    0.0134514
269  H    0.5097      0.318643    0.319871
270  H    0.00970033  0.818643    0.319871
271  H    0.72309     0.0858324   0.319898
272  H    0.22309     0.585832    0.319898
273  H    0.732796    0.237799    0.346764
274  H    0.232796    0.737799    0.346764
275  H    0.77691     0.0808345   0.013424
276  H    0.27691     0.580834    0.013424
277  H    0.22309     0.252499    0.653239
278  H    0.72309     0.752499    0.653239
279  H    0.232794    0.0711318   0.0134322
280  H    0.732794    0.571132    0.0134322
281  H    0.232816    0.404469    0.680122
282  H    0.732816    0.904469    0.680122
283  H    0.267203    0.0955351   0.319897
284  H    0.767203    0.595535    0.319897
285  H    0.267185    0.428863    0.986539
286  H    0.767185    0.928863    0.986539
287  H    0.27691     0.2475      0.346763
288  H    0.77691     0.7475      0.346763
289  Ni  0.864341    0.485679    0.362747
290  Ni  0.364341    0.985679    0.362747
291  Ni  0.796343    0.491657    0.696094
292  Ni  0.296343    0.991657    0.696094
293  Ni  0.339319    0.0226679   0.0293928
294  Ni  0.839319    0.522668    0.0293928
295  Ni  0.635655    0.0143241   0.637234
296  Ni  0.135654    0.514324    0.637234
297  Ni  0.703659    0.00834249  0.303942
298  Ni  0.203659    0.508343    0.303942
299  Ni  0.160687    0.477336    0.970578
300  Ni  0.660687    0.977336    0.970578
301  Ni  0.864344    0.152342    0.696088
302  Ni  0.364344    0.652342    0.696088
303  Ni  0.839318    0.189332    0.362717
304  Ni  0.339318    0.689332    0.362717
305  Ni  0.796336    0.158324    0.0293954
306  Ni  0.296336    0.658324    0.0293954
307  Ni  0.135654    0.180991    0.970572
308  Ni  0.635654    0.680991    0.970572
309  Ni  0.16068     0.144001    0.303945
310  Ni  0.66068     0.644001    0.303945
311  Ni  0.203662    0.17501     0.637269
312  Ni  0.703662    0.675009    0.637269
313  Ni  0.296342    0.32499     0.36272
314  Ni  0.796343    0.82499     0.36272
315  Ni  0.339315    0.355996    0.696082
316  Ni  0.839315    0.855996    0.696082
317  Ni  0.364347    0.319008    0.0294302
318  Ni  0.864347    0.819008    0.0294302
319  Ni  0.703658    0.341678    0.970567
320  Ni  0.203658    0.841678    0.970567
321  Ni  0.635659    0.347655    0.303914
322  Ni  0.135659    0.847655    0.303914
323  Ni  0.660682    0.310667    0.637271
324  Ni  0.160682    0.810667    0.637271
