Zn-MOF-74_2016-09-08_12:07:03
#******************************************
#
# file created by Zeo++
# Zeo++ is an open source package to
# analyze microporous materials
#
#*******************************************

_cell_length_a                  52.1907
_cell_length_b                  45.1984
_cell_length_c                  6.88181
_cell_angle_alpha               90
_cell_angle_beta                90
_cell_angle_gamma               90

_symmetry_space_group_name_H-M  'P1'
_symmetry_Int_Tables_number     1
_symmetry_cell_setting          Orthorhombic

loop_
_symmetry_equiv_pos_as_xyz
'+x,+y,+z'

loop_
_atom_site_label
_atom_site_type_symbol
_atom_site_fract_x
_atom_site_fract_y
_atom_site_fract_z
1    Zn  0.102138    0.176874    0.634284
2    Zn  0.352138    0.676874    0.634284
3    Zn  0.602138    0.176874    0.634284
4    Zn  0.852138    0.676874    0.634284
5    C  0.109673    0.20288     0.259259
6    C  0.359673    0.70288     0.259259
7    C  0.609673    0.20288     0.259259
8    C  0.859673    0.70288     0.259259
9    F  0.116949    0.226643    0.121454
10   F  0.366949    0.726643    0.121454
11   F  0.616949    0.226643    0.121454
12   F  0.866949    0.726643    0.121454
13   B  0.132908    0.249171    0.191208
14   B  0.382908    0.749171    0.191208
15   B  0.632908    0.249171    0.191208
16   B  0.882908    0.749171    0.191208
17   H   0.139066    0.248251    0.342056
18   H   0.389066    0.748251    0.342056
19   H   0.639066    0.248251    0.342056
20   H   0.889066    0.748251    0.342056
21   Br  0.118615    0.202834    0.431918
22   Br  0.368615    0.702834    0.431918
23   Br  0.618615    0.202834    0.431918
24   Br  0.868615    0.702834    0.431918
25   O  0.0941721   0.182809    0.198048
26   O  0.344172    0.682809    0.198048
27   O  0.594172    0.182809    0.198048
28   O  0.844172    0.682809    0.198048
29   Cl  0.156935    0.293171    0.160158
30   Cl  0.406935    0.793171    0.160158
31   Cl  0.656935    0.293171    0.160158
32   Cl  0.906935    0.793171    0.160158
33   Zn  0.081586    0.142756    0.300952
34   Zn  0.331586    0.642756    0.300952
35   Zn  0.581586    0.142756    0.300952
36   Zn  0.831586    0.642756    0.300952
37   Zn  0.0662739   0.180367    0.967613
38   Zn  0.316274    0.680367    0.967613
39   Zn  0.566274    0.180367    0.967613
40   Zn  0.816274    0.680367    0.967613
41   Zn  0.14786     0.323123    0.365706
42   Zn  0.39786     0.823123    0.365706
43   Zn  0.64786     0.323123    0.365706
44   Zn  0.89786     0.823123    0.365706
45   O  0.0900208   0.147754    0.864711
46   O  0.340021    0.647754    0.864711
47   O  0.590021    0.147754    0.864711
48   O  0.840021    0.647754    0.864711
49   O  0.0658046   0.169434    0.53138
50   O  0.315805    0.669434    0.53138
51   O  0.565805    0.169434    0.53138
52   O  0.815805    0.669434    0.53138
53   Cl  0.0930639   0.206826    0.839832
54   Cl  0.343064    0.706826    0.839832
55   Cl  0.593064    0.206826    0.839832
56   Cl  0.843064    0.706826    0.839832
57   Cl  0.108587    0.136854    0.5065
58   Cl  0.358587    0.636854    0.5065
59   Cl  0.608587    0.136854    0.5065
60   Cl  0.858587    0.636854    0.5065
61   N  0.108638    0.227266    0.923508
62   N  0.358638    0.727266    0.923508
63   N  0.608638    0.227266    0.923508
64   N  0.858638    0.727266    0.923508
65   C  0.140326    0.297117    0.740731
66   C  0.390326    0.797117    0.740731
67   C  0.640326    0.297117    0.740731
68   C  0.890326    0.797117    0.740731
69   F  0.13305     0.273354    0.878537
70   F  0.38305     0.773354    0.878537
71   F  0.63305     0.273354    0.878537
72   F  0.88305     0.773354    0.878537
73   N  0.141361    0.272731    0.0764724
74   N  0.391361    0.772731    0.0764724
75   N  0.641361    0.272731    0.0764724
76   N  0.891361    0.772731    0.0764724
77   B  0.117091    0.250826    0.808782
78   B  0.367091    0.750826    0.808782
79   B  0.617091    0.250826    0.808782
80   B  0.867091    0.750826    0.808782
81   H   0.110932    0.251746    0.657934
82   H   0.360932    0.751746    0.657934
83   H   0.610932    0.251746    0.657934
84   H   0.860932    0.751746    0.657934
85   Br  0.131383    0.297163    0.568072
86   Br  0.381383    0.797163    0.568072
87   Br  0.631383    0.297163    0.568072
88   Br  0.881383    0.797163    0.568072
89   O  0.155826    0.317188    0.801943
90   O  0.405826    0.817188    0.801943
91   O  0.655827    0.317188    0.801943
92   O  0.905827    0.817188    0.801943
93   Zn  0.168413    0.357241    0.699038
94   Zn  0.418413    0.857241    0.699038
95   Zn  0.668413    0.357241    0.699038
96   Zn  0.918413    0.857241    0.699038
97   Zn  0.183725    0.31963     0.0323671
98   Zn  0.433725    0.81963     0.0323671
99   Zn  0.683725    0.31963     0.0323671
100  Zn  0.933725    0.81963     0.0323671
101  O  0.159978    0.352243    0.135279
102  O  0.409978    0.852243    0.135279
103  O  0.659978    0.352243    0.135279
104  O  0.909978    0.852243    0.135279
105  O  0.184194    0.330564    0.46861
106  O  0.434194    0.830564    0.46861
107  O  0.684194    0.330564    0.46861
108  O  0.934194    0.830564    0.46861
109  Cl  0.141411    0.363143    0.49349
110  Cl  0.391411    0.863143    0.49349
111  Cl  0.641411    0.363143    0.49349
112  Cl  0.891411    0.863143    0.49349
113  Zn  0.168414    0.690575    0.365706
114  Zn  0.418414    0.190575    0.365706
115  Zn  0.668414    0.690575    0.365706
116  Zn  0.918414    0.190575    0.365706
117  Zn  0.183726    0.652964    0.699038
118  Zn  0.433726    0.152964    0.699038
119  Zn  0.683726    0.652964    0.699038
120  Zn  0.933726    0.152964    0.699038
121  O  0.184195    0.663898    0.135279
122  O  0.434195    0.163898    0.135279
123  O  0.684195    0.663898    0.135279
124  O  0.934195    0.163898    0.135279
125  O  0.159979    0.685577    0.801943
126  O  0.409979    0.185577    0.801943
127  O  0.659979    0.685577    0.801943
128  O  0.909979    0.185577    0.801943
129  O  0.0900211   0.481085    0.53138
130  O  0.340021    0.981085    0.53138
131  O  0.590021    0.481085    0.53138
132  O  0.840021    0.981085    0.53138
133  Cl  0.108587    0.470186    0.17317
134  Cl  0.358588    0.970186    0.17317
135  Cl  0.608587    0.470186    0.17317
136  Cl  0.858587    0.970186    0.17317
137  Zn  0.0815862   0.476087    0.967613
138  Zn  0.331586    0.976088    0.967613
139  Zn  0.581586    0.476087    0.967613
140  Zn  0.831586    0.976088    0.967613
141  Zn  0.168412    0.0239097   0.0323671
142  Zn  0.418412    0.52391     0.0323671
143  Zn  0.668412    0.0239097   0.0323671
144  Zn  0.918412    0.52391     0.0323671
145  O  0.159978    0.0189122   0.46861
146  O  0.409978    0.518912    0.46861
147  O  0.659977    0.0189122   0.46861
148  O  0.909977    0.518912    0.46861
149  Cl  0.141411    0.0298116   0.82682
150  Cl  0.391411    0.529812    0.82682
151  Cl  0.641411    0.0298116   0.82682
152  Cl  0.891411    0.529812    0.82682
153  Cl  0.0930657   0.873492    0.17317
154  Cl  0.343066    0.373492    0.17317
155  Cl  0.593066    0.873492    0.17317
156  Cl  0.843066    0.373492    0.17317
157  Zn  0.10214     0.84354     0.967613
158  Zn  0.35214     0.34354     0.967613
159  Zn  0.60214     0.84354     0.967613
160  Zn  0.85214     0.34354     0.967613
161  C  0.109674    0.869545    0.592601
162  C  0.359674    0.369545    0.592601
163  C  0.609674    0.869545    0.592601
164  C  0.859674    0.369545    0.592601
165  F  0.11695     0.893309    0.454782
166  F  0.36695     0.393309    0.454782
167  F  0.61695     0.893309    0.454782
168  F  0.86695     0.393309    0.454782
169  N  0.108639    0.893932    0.256846
170  N  0.358639    0.393932    0.256846
171  N  0.608639    0.893932    0.256846
172  N  0.858639    0.393932    0.256846
173  B  0.13291     0.915837    0.524541
174  B  0.38291     0.415837    0.524541
175  B  0.63291     0.915837    0.524541
176  B  0.88291     0.415837    0.524541
177  H   0.139068    0.914917    0.675386
178  H   0.389068    0.414917    0.675386
179  H   0.639068    0.914917    0.675386
180  H   0.889068    0.414917    0.675386
181  Br  0.118617    0.8695      0.765241
182  Br  0.368617    0.3695      0.765241
183  Br  0.618617    0.8695      0.765241
184  Br  0.868617    0.3695      0.765241
185  O  0.0941743   0.849476    0.53138
186  O  0.344174    0.349476    0.53138
187  O  0.594174    0.849476    0.53138
188  O  0.844174    0.349476    0.53138
189  F  0.133052    0.94002     0.211876
190  F  0.383052    0.44002     0.211876
191  F  0.633052    0.94002     0.211876
192  F  0.883052    0.44002     0.211876
193  N  0.141362    0.939397    0.409813
194  N  0.391362    0.439397    0.409813
195  N  0.641362    0.939397    0.409813
196  N  0.891362    0.439397    0.409813
197  B  0.117092    0.917492    0.142117
198  B  0.367092    0.417492    0.142117
199  B  0.617092    0.917492    0.142117
200  B  0.867092    0.417492    0.142117
201  O  0.155827    0.983853    0.135279
202  O  0.405827    0.483853    0.135279
203  O  0.655827    0.983853    0.135279
204  O  0.905827    0.483853    0.135279
205  Cl  0.156936    0.959837    0.49349
206  Cl  0.406936    0.459837    0.49349
207  Cl  0.656936    0.959837    0.49349
208  Cl  0.906936    0.459837    0.49349
209  Zn  0.147862    0.989789    0.699038
210  Zn  0.397862    0.489789    0.699038
211  Zn  0.647862    0.989789    0.699038
212  Zn  0.897862    0.489789    0.699038
213  Zn  0.183726    0.986296    0.365706
214  Zn  0.433726    0.486296    0.365706
215  Zn  0.683726    0.986296    0.365706
216  Zn  0.933726    0.486296    0.365706
217  Cl  0.108589    0.80352     0.839832
218  Cl  0.358589    0.30352     0.839832
219  Cl  0.608589    0.80352     0.839832
220  Cl  0.858589    0.30352     0.839832
221  C  0.140327    0.963784    0.0740582
222  C  0.390327    0.463784    0.0740582
223  C  0.640327    0.963784    0.0740582
224  C  0.890327    0.463784    0.0740582
225  Br  0.131384    0.963829    0.901408
226  Br  0.381384    0.463829    0.901408
227  Br  0.631384    0.963829    0.901408
228  Br  0.881384    0.463829    0.901408
229  O  0.184194    0.99723     0.801943
230  O  0.434194    0.49723     0.801943
231  O  0.684194    0.99723     0.801943
232  O  0.934194    0.49723     0.801943
233  Zn  0.0662728   0.847033    0.300952
234  Zn  0.316273    0.347033    0.300952
235  Zn  0.566273    0.847033    0.300952
236  Zn  0.816273    0.347033    0.300952
237  O  0.0900194   0.81442     0.198048
238  O  0.340019    0.31442     0.198048
239  O  0.590019    0.81442     0.198048
240  O  0.840019    0.31442     0.198048
241  Zn  0.0815851   0.809422    0.634284
242  Zn  0.331585    0.309422    0.634284
243  Zn  0.581585    0.809422    0.634284
244  Zn  0.831585    0.309422    0.634284
245  O  0.0658037   0.836099    0.864711
246  O  0.315804    0.336099    0.864711
247  O  0.565804    0.836099    0.864711
248  O  0.815804    0.336099    0.864711
249  Cl  0.0483473   0.489648    0.839832
250  Cl  0.298347    0.989648    0.839832
251  Cl  0.548347    0.489648    0.839832
252  Cl  0.798347    0.989648    0.839832
253  N  0.0252302   0.495002    0.923508
254  N  0.27523     0.995002    0.923508
255  N  0.52523     0.495002    0.923508
256  N  0.77523     0.995002    0.923508
257  C  0.206998    0.991764    0.740731
258  C  0.456998    0.491764    0.740731
259  C  0.706998    0.991764    0.740731
260  C  0.956998    0.491764    0.740731
261  F  0.228458    0.99637     0.878537
262  F  0.478458    0.49637     0.878537
263  F  0.728458    0.99637     0.878537
264  F  0.978458    0.49637     0.878537
265  B  0.00333331  0.491675    0.808782
266  B  0.253333    0.991675    0.808782
267  B  0.503333    0.491675    0.808782
268  B  0.753333    0.991675    0.808782
269  H   0.00572316  0.485056    0.657934
270  H   0.255723    0.985056    0.657934
271  H   0.505723    0.485056    0.657934
272  H   0.755723    0.985056    0.657934
273  Br  0.211435    0.982799    0.568072
274  Br  0.461435    0.482799    0.568072
275  Br  0.711435    0.982799    0.568072
276  Br  0.961435    0.482799    0.568072
277  N  0.116132    0.777726    0.923508
278  N  0.366132    0.277726    0.923508
279  N  0.616132    0.777726    0.923508
280  N  0.866132    0.277726    0.923508
281  C  0.152676    0.711113    0.740731
282  C  0.402676    0.211113    0.740731
283  C  0.652676    0.711113    0.740731
284  C  0.902676    0.211113    0.740731
285  F  0.138492    0.73027     0.878537
286  F  0.388492    0.23027     0.878537
287  F  0.638492    0.73027     0.878537
288  F  0.888492    0.23027     0.878537
289  B  0.129576    0.757493    0.808782
290  B  0.379576    0.257493    0.808782
291  B  0.629576    0.757493    0.808782
292  B  0.879576    0.257493    0.808782
293  H   0.133345    0.763192    0.657934
294  H   0.383345    0.263192    0.657934
295  H   0.633345    0.763192    0.657934
296  H   0.883345    0.263192    0.657934
297  Br  0.157182    0.720033    0.568072
298  Br  0.407182    0.220033    0.568072
299  Br  0.657182    0.720033    0.568072
300  Br  0.907182    0.220033    0.568072
301  Cl  0.201653    0.677014    0.49349
302  Cl  0.451653    0.177014    0.49349
303  Cl  0.701653    0.677014    0.49349
304  Cl  0.951653    0.177014    0.49349
305  C  0.0973221   0.788884    0.259259
306  C  0.347322    0.288884    0.259259
307  C  0.597322    0.788884    0.259259
308  C  0.847322    0.288884    0.259259
309  F  0.111507    0.769727    0.121454
310  F  0.361507    0.269727    0.121454
311  F  0.611507    0.769727    0.121454
312  F  0.861507    0.269727    0.121454
313  B  0.120423    0.742504    0.191208
314  B  0.370423    0.242504    0.191208
315  B  0.620423    0.742504    0.191208
316  B  0.870423    0.242504    0.191208
317  H   0.116654    0.736805    0.342056
318  H   0.366654    0.236805    0.342056
319  H   0.616654    0.736805    0.342056
320  H   0.866654    0.236805    0.342056
321  Br  0.0928165   0.779965    0.431918
322  Br  0.342817    0.279965    0.431918
323  Br  0.592817    0.779965    0.431918
324  Br  0.842817    0.279965    0.431918
325  Cl  0.0483458   0.822983    0.5065
326  Cl  0.298346    0.322983    0.5065
327  Cl  0.548346    0.822983    0.5065
328  Cl  0.798346    0.322983    0.5065
329  Br  0.0385639   0.85053     0.0985826
330  Br  0.288564    0.35053     0.0985826
331  Br  0.538564    0.85053     0.0985826
332  Br  0.788564    0.35053     0.0985826
333  C  0.0430017   0.841565    0.925922
334  C  0.293002    0.341565    0.925922
335  C  0.543002    0.841565    0.925922
336  C  0.793002    0.341565    0.925922
337  F  0.0215409   0.836959    0.788115
338  F  0.271541    0.336958    0.788115
339  F  0.521541    0.836959    0.788115
340  F  0.771541    0.336958    0.788115
341  N  0.0252287   0.828336    0.590177
342  N  0.275229    0.328336    0.590177
343  N  0.525229    0.828336    0.590177
344  N  0.775229    0.328336    0.590177
345  B  0.246665    0.341654    0.857873
346  B  0.496665    0.841654    0.857873
347  B  0.746665    0.341654    0.857873
348  B  0.996665    0.841654    0.857873
349  H   0.244276    0.348272    0.0087152
350  H   0.494276    0.848272    0.0087152
351  H   0.744276    0.348272    0.0087152
352  H   0.994276    0.848272    0.0087152
353  C  0.206996    0.325098    0.407389
354  C  0.456996    0.825098    0.407389
355  C  0.706996    0.325098    0.407389
356  C  0.956996    0.825098    0.407389
357  F  0.228457    0.329705    0.545208
358  F  0.478457    0.829705    0.545208
359  F  0.728457    0.329705    0.545208
360  F  0.978457    0.829705    0.545208
361  N  0.224768    0.338326    0.743144
362  N  0.474768    0.838326    0.743144
363  N  0.724768    0.338326    0.743144
364  N  0.974769    0.838326    0.743144
365  B  0.00333281  0.825009    0.475449
366  B  0.253333    0.325009    0.475449
367  B  0.503333    0.825009    0.475449
368  B  0.753333    0.325009    0.475449
369  H   0.00572188  0.818391    0.324604
370  H   0.255722    0.318391    0.324604
371  H   0.505722    0.818391    0.324604
372  H   0.755722    0.318391    0.324604
373  Br  0.211433    0.316134    0.234749
374  Br  0.461433    0.816134    0.234749
375  Br  0.711434    0.316134    0.234749
376  Br  0.961434    0.816134    0.234749
377  Cl  0.201652    0.34368     0.82682
378  Cl  0.451652    0.84368     0.82682
379  Cl  0.701652    0.34368     0.82682
380  Cl  0.951652    0.84368     0.82682
381  Br  0.0928177   0.113299    0.0985826
382  Br  0.342818    0.613299    0.0985826
383  Br  0.592818    0.113299    0.0985826
384  Br  0.842818    0.613299    0.0985826
385  Cl  0.0483468   0.156317    0.17317
386  Cl  0.298347    0.656317    0.17317
387  Cl  0.548347    0.156317    0.17317
388  Cl  0.798347    0.656317    0.17317
389  C  0.0973228   0.122219    0.925922
390  C  0.347323    0.622219    0.925922
391  C  0.597323    0.122219    0.925922
392  C  0.847323    0.622219    0.925922
393  F  0.111508    0.103062    0.788115
394  F  0.361508    0.603062    0.788115
395  F  0.611508    0.103062    0.788115
396  F  0.861508    0.603062    0.788115
397  N  0.11613     0.111061    0.590177
398  N  0.36613     0.611061    0.590177
399  N  0.61613     0.111061    0.590177
400  N  0.86613     0.611061    0.590177
401  B  0.120424    0.0758379   0.857873
402  B  0.370424    0.575838    0.857873
403  B  0.620424    0.0758379   0.857873
404  B  0.870424    0.575838    0.857873
405  H   0.116655    0.0701395   0.0087152
406  H   0.366655    0.570139    0.0087152
407  H   0.616655    0.0701395   0.0087152
408  H   0.866655    0.570139    0.0087152
409  C  0.152676    0.0444467   0.407389
410  C  0.402676    0.544447    0.407389
411  C  0.652676    0.0444467   0.407389
412  C  0.902676    0.544447    0.407389
413  F  0.13849     0.0636044   0.545208
414  F  0.38849     0.563604    0.545208
415  F  0.63849     0.0636044   0.545208
416  F  0.88849     0.563604    0.545208
417  N  0.133868    0.0556053   0.743144
418  N  0.383868    0.555605    0.743144
419  N  0.633868    0.0556053   0.743144
420  N  0.883868    0.555605    0.743144
421  B  0.129574    0.0908283   0.475449
422  B  0.379574    0.590828    0.475449
423  B  0.629574    0.0908283   0.475449
424  B  0.879574    0.590828    0.475449
425  H   0.133343    0.0965266   0.324604
426  H   0.383343    0.596527    0.324604
427  H   0.633343    0.0965266   0.324604
428  H   0.883343    0.596527    0.324604
429  Br  0.15718     0.0533667   0.234749
430  Br  0.40718     0.553367    0.234749
431  Br  0.65718     0.0533667   0.234749
432  Br  0.90718     0.553367    0.234749
433  C  0.0430029   0.174899    0.592601
434  C  0.293003    0.674899    0.592601
435  C  0.543003    0.174899    0.592601
436  C  0.793003    0.674899    0.592601
437  F  0.021542    0.170293    0.454782
438  F  0.271542    0.670293    0.454782
439  F  0.521542    0.170293    0.454782
440  F  0.771542    0.670293    0.454782
441  N  0.0252301   0.161671    0.256846
442  N  0.27523     0.661671    0.256846
443  N  0.52523     0.161671    0.256846
444  N  0.77523     0.661671    0.256846
445  B  0.246666    0.674988    0.524541
446  B  0.496666    0.174988    0.524541
447  B  0.746666    0.674988    0.524541
448  B  0.996666    0.174988    0.524541
449  H   0.244277    0.681607    0.675386
450  H   0.494277    0.181607    0.675386
451  H   0.744277    0.681607    0.675386
452  H   0.994277    0.181607    0.675386
453  Br  0.0385651   0.183864    0.765241
454  Br  0.288565    0.683864    0.765241
455  Br  0.538565    0.183864    0.765241
456  Br  0.788565    0.683864    0.765241
457  F  0.228458    0.663039    0.211876
458  F  0.478458    0.163039    0.211876
459  F  0.728458    0.663039    0.211876
460  F  0.978458    0.163039    0.211876
461  N  0.22477     0.671661    0.409813
462  N  0.47477     0.171661    0.409813
463  N  0.72477     0.671661    0.409813
464  N  0.97477     0.171661    0.409813
465  B  0.00333372  0.158343    0.142117
466  B  0.253334    0.658343    0.142117
467  B  0.503334    0.158343    0.142117
468  B  0.753334    0.658343    0.142117
469  C  0.206997    0.658432    0.0740582
470  C  0.456997    0.158432    0.0740582
471  C  0.706997    0.658432    0.0740582
472  C  0.956997    0.158432    0.0740582
473  Br  0.211435    0.649467    0.901408
474  Br  0.461435    0.149467    0.901408
475  Br  0.711435    0.649467    0.901408
476  Br  0.961435    0.149467    0.901408
477  C  0.0973228   0.45555     0.592601
478  C  0.347323    0.95555     0.592601
479  C  0.597323    0.45555     0.592601
480  C  0.847323    0.95555     0.592601
481  F  0.111508    0.436393    0.454782
482  F  0.361508    0.936393    0.454782
483  F  0.611508    0.436393    0.454782
484  F  0.861508    0.936393    0.454782
485  N  0.116131    0.444392    0.256846
486  N  0.366131    0.944392    0.256846
487  N  0.616131    0.444392    0.256846
488  N  0.866131    0.944392    0.256846
489  B  0.120425    0.409169    0.524541
490  B  0.370425    0.909169    0.524541
491  B  0.620425    0.409169    0.524541
492  B  0.870425    0.909169    0.524541
493  H   0.116655    0.403471    0.675386
494  H   0.366655    0.903471    0.675386
495  H   0.616655    0.403471    0.675386
496  H   0.866655    0.903471    0.675386
497  Br  0.0928183   0.44663     0.765241
498  Br  0.342818    0.94663     0.765241
499  Br  0.592818    0.44663     0.765241
500  Br  0.842818    0.94663     0.765241
501  F  0.138491    0.396936    0.211876
502  F  0.388491    0.896936    0.211876
503  F  0.638491    0.396936    0.211876
504  F  0.888491    0.896936    0.211876
505  N  0.133868    0.388937    0.409813
506  N  0.383868    0.888937    0.409813
507  N  0.633868    0.388937    0.409813
508  N  0.883868    0.888937    0.409813
509  B  0.129574    0.424159    0.142117
510  B  0.379574    0.924159    0.142117
511  B  0.629574    0.424159    0.142117
512  B  0.879574    0.924159    0.142117
513  C  0.152676    0.377778    0.0740582
514  C  0.402676    0.877778    0.0740582
515  C  0.652676    0.377778    0.0740582
516  C  0.902676    0.877778    0.0740582
517  Br  0.157181    0.386698    0.901408
518  Br  0.407181    0.886698    0.901408
519  Br  0.657181    0.386698    0.901408
520  Br  0.907181    0.886698    0.901408
521  Zn  0.102137    0.510208    0.300952
522  Zn  0.352137    0.0102079   0.300952
523  Zn  0.602137    0.510208    0.300952
524  Zn  0.852137    0.0102079   0.300952
525  Br  0.118614    0.536168    0.0985826
526  Br  0.368614    0.0361682   0.0985826
527  Br  0.618614    0.536168    0.0985826
528  Br  0.868614    0.0361682   0.0985826
529  Zn  0.0662725   0.513701    0.634284
530  Zn  0.316273    0.0137011   0.634284
531  Zn  0.566272    0.513701    0.634284
532  Zn  0.816273    0.0137011   0.634284
533  O  0.0658042   0.502768    0.198048
534  O  0.315804    0.00276748  0.198048
535  O  0.565804    0.502768    0.198048
536  O  0.815804    0.00276748  0.198048
537  Cl  0.0930627   0.54016     0.5065
538  Cl  0.343063    0.04016     0.5065
539  Cl  0.593063    0.54016     0.5065
540  Cl  0.843063    0.04016     0.5065
541  C  0.109671    0.536213    0.925922
542  C  0.359671    0.0362131   0.925922
543  C  0.609671    0.536213    0.925922
544  C  0.859671    0.0362131   0.925922
545  F  0.116947    0.559977    0.788115
546  F  0.366947    0.059977    0.788115
547  F  0.616947    0.559977    0.788115
548  F  0.866947    0.059977    0.788115
549  N  0.108637    0.5606      0.590177
550  N  0.358637    0.0606002   0.590177
551  N  0.608637    0.5606      0.590177
552  N  0.858637    0.0606002   0.590177
553  B  0.132907    0.582505    0.857873
554  B  0.382907    0.0825054   0.857873
555  B  0.632907    0.582505    0.857873
556  B  0.882907    0.0825054   0.857873
557  H   0.139065    0.581586    0.0087152
558  H   0.389065    0.0815855   0.0087152
559  H   0.639065    0.581586    0.0087152
560  H   0.889065    0.0815855   0.0087152
561  O  0.0941713   0.516144    0.864711
562  O  0.344171    0.0161438   0.864711
563  O  0.594171    0.516144    0.864711
564  O  0.844171    0.0161438   0.864711
565  C  0.140324    0.630452    0.407389
566  C  0.390324    0.130452    0.407389
567  C  0.640324    0.630452    0.407389
568  C  0.890324    0.130452    0.407389
569  F  0.133049    0.606688    0.545208
570  F  0.383049    0.106688    0.545208
571  F  0.633049    0.606688    0.545208
572  F  0.883049    0.106688    0.545208
573  N  0.141359    0.606065    0.743144
574  N  0.391359    0.106065    0.743144
575  N  0.641359    0.606065    0.743144
576  N  0.891359    0.106065    0.743144
577  B  0.117089    0.58416     0.475449
578  B  0.367089    0.0841598   0.475449
579  B  0.617089    0.58416     0.475449
580  B  0.867089    0.0841598   0.475449
581  H   0.110931    0.58508     0.324604
582  H   0.360931    0.08508     0.324604
583  H   0.610931    0.58508     0.324604
584  H   0.860931    0.08508     0.324604
585  Br  0.131382    0.630497    0.234749
586  Br  0.381382    0.130497    0.234749
587  Br  0.631382    0.630497    0.234749
588  Br  0.881382    0.130497    0.234749
589  O  0.155824    0.650521    0.46861
590  O  0.405824    0.150521    0.46861
591  O  0.655824    0.650521    0.46861
592  O  0.905824    0.150521    0.46861
593  Cl  0.156933    0.626505    0.82682
594  Cl  0.406933    0.126505    0.82682
595  Cl  0.656933    0.626505    0.82682
596  Cl  0.906933    0.126505    0.82682
597  Zn  0.147859    0.656458    0.0323671
598  Zn  0.397859    0.156458    0.0323671
599  Zn  0.647859    0.656458    0.0323671
600  Zn  0.897859    0.156458    0.0323671
601  C  0.0430008   0.508233    0.259259
602  C  0.293001    0.00823286  0.259259
603  C  0.543001    0.508233    0.259259
604  C  0.793001    0.00823286  0.259259
605  F  0.0215404   0.503627    0.121454
606  F  0.27154     0.00362695  0.121454
607  F  0.52154     0.503627    0.121454
608  F  0.77154     0.00362695  0.121454
609  B  0.246665    0.00832222  0.191208
610  B  0.496665    0.508322    0.191208
611  B  0.746665    0.00832222  0.191208
612  B  0.996665    0.508322    0.191208
613  H   0.244275    0.0149408   0.342056
614  H   0.494275    0.514941    0.342056
615  H   0.744275    0.0149408   0.342056
616  H   0.994275    0.514941    0.342056
617  Br  0.0385638   0.517198    0.431918
618  Br  0.288564    0.0171983   0.431918
619  Br  0.538564    0.517198    0.431918
620  Br  0.788564    0.0171983   0.431918
621  Cl  0.14141     0.696477    0.160158
622  Cl  0.39141     0.196477    0.160158
623  Cl  0.64141     0.696477    0.160158
624  Cl  0.89141     0.196477    0.160158
625  H   0.110934    0.918412    0.991265
626  H   0.360934    0.418412    0.991265
627  H   0.610934    0.918412    0.991265
628  H   0.860934    0.418412    0.991265
629  Cl  0.201651    0.010349    0.160158
630  Cl  0.451651    0.510349    0.160158
631  Cl  0.701651    0.010349    0.160158
632  Cl  0.951651    0.510349    0.160158
633  N  0.224768    0.00499503  0.0764724
634  N  0.474768    0.504995    0.0764724
635  N  0.724768    0.00499503  0.0764724
636  N  0.974768    0.504995    0.0764724
637  N  0.133867    0.722271    0.0764724
638  N  0.383867    0.222271    0.0764724
639  N  0.633867    0.722271    0.0764724
640  N  0.883867    0.222271    0.0764724
641  H   0.00572303  0.151725    0.991265
642  H   0.255723    0.651725    0.991265
643  H   0.505723    0.151725    0.991265
644  H   0.755723    0.651725    0.991265
645  H   0.133343    0.429858    0.991265
646  H   0.383343    0.929858    0.991265
647  H   0.633343    0.429858    0.991265
648  H   0.883343    0.929858    0.991265
